Circuit: * C:\Users\HP\Desktop\LTspice Codes\commnet23\ps1\commnet23_ps1.asc

Direct Newton iteration for .op point succeeded.
Ignoring empty pin current: Ix(u3:1)
Ignoring empty pin current: Ix(u3:2)
Ignoring empty pin current: Ix(u2:1)
Ignoring empty pin current: Ix(u2:2)
Ignoring empty pin current: Ix(u3:1)
Ignoring empty pin current: Ix(u3:2)
Ignoring empty pin current: Ix(u2:1)
Ignoring empty pin current: Ix(u2:2)

Date: Thu Mar 23 20:22:09 2023
Total elapsed time: 0.060 seconds.

tnom = 27
temp = 27
method = modified trap
totiter = 2190
traniter = 2185
tranpoints = 1059
accept = 1057
rejected = 2
matrix size = 11
fillins = 4
solver = Normal
Matrix Compiler1: 806 bytes object code size  0.2/0.1/[0.1]
Matrix Compiler2: 1011 bytes object code size  0.1/0.1/[0.1]

